/*--------------------------------*- C++ -*----------------------------------*\
| =========                 |                                                 |
| \\      /  F ield         | OpenFOAM: The Open Source CFD Toolbox           |
|  \\    /   O peration     | Version:  4.1                                   |
|   \\  /    A nd           | Web:      www.OpenFOAM.org                      |
|    \\/     M anipulation  |                                                 |
\*---------------------------------------------------------------------------*/
FoamFile
{
    version     2.0;
    format      ascii;
    class       volScalarField;
    object      p;
}
// * * * * * * * * * * * * * * * * * * * * * * * * * * * * * * * * * * * * * //

dimensions      [0 2 -2 0 0 0 0];

internalField   uniform 0;

boundaryField
{
    top
    {
        type            symmetryPlane;
    }

    bottom
    {
        type            symmetryPlane;
    }

    inlet
    {
        type            freestreamPressure;
    }

    outlet
    {
        type            freestreamPressure;
    }

	frontAndBack
	{
		type			empty;
	}
	
	cylinder
	{
		type			zeroGradient;
	}
}

// ************************************************************************* //

