/*--------------------------------*- C++ -*----------------------------------*\
| =========                 |                                                 |
| \\      /  F ield         | OpenFOAM: The Open Source CFD Toolbox           |
|  \\    /   O peration     | Version:  4.1                                   |
|   \\  /    A nd           | Web:      www.OpenFOAM.org                      |
|    \\/     M anipulation  |                                                 |
\*---------------------------------------------------------------------------*/
FoamFile
{
    version     2.0;
    format      ascii;
    class       volVectorField;
    object      U;
}
// * * * * * * * * * * * * * * * * * * * * * * * * * * * * * * * * * * * * * //

dimensions      [0 1 -1 0 0 0 0];

internalField   uniform (5 0 0);

boundaryField
{
    top
    {
    	type			symmetryPlane;
    }

    bottom
    {
    	type			symmetryPlane;
    }
	
	inlet
	{
        type            freestream;
        value           uniform (5 0 0);
	}
	
	outlet
	{
        type            freestream;
        value			uniform (5 0 0);
	}
	
	cylinder
	{
		type			fixedValue;
		value			uniform (0 0 0);
	}
    frontAndBack
    {
        type            empty;
    }
}

// ************************************************************************* //
